Version 4
SHEET 1 880 680
WIRE 288 -128 224 -128
WIRE 224 -80 224 -128
WIRE -16 -32 -32 -32
WIRE 80 -32 64 -32
WIRE 80 48 80 -32
WIRE 80 48 0 48
WIRE 0 64 0 48
WIRE 288 64 288 -128
WIRE 0 256 0 144
WIRE 0 256 -48 256
WIRE 128 256 0 256
WIRE 288 272 288 144
WIRE 288 272 192 272
WIRE 336 272 288 272
WIRE 80 288 80 48
WIRE 128 288 80 288
WIRE -48 336 -48 256
WIRE -48 432 -48 416
FLAG -32 -32 0
FLAG -48 432 0
FLAG 224 0 0
FLAG 336 272 5V-PWM
FLAG -48 256 3.3V-PWM
SYMBOL AutoGenerated\\bss138lt1 160 272 R180
SYMATTR InstName U1
SYMBOL res -16 48 R0
SYMATTR InstName R1
SYMATTR Value 10k
SYMBOL res 272 48 R0
SYMATTR InstName R2
SYMATTR Value 10k
SYMBOL voltage 80 -32 R90
WINDOW 0 -32 56 VBottom 2
WINDOW 3 32 56 VTop 2
WINDOW 123 0 0 Left 0
WINDOW 39 0 0 Left 0
SYMATTR InstName V1
SYMATTR Value 3.3
SYMBOL voltage 224 -96 R0
WINDOW 123 0 0 Left 0
WINDOW 39 0 0 Left 0
SYMATTR InstName V2
SYMATTR Value 5
SYMBOL voltage -48 320 R0
WINDOW 123 0 0 Left 0
WINDOW 39 0 0 Left 0
SYMATTR InstName V3
SYMATTR Value PULSE(0 3.3 0 0 0 0.001 0.0015 100)
TEXT 142 448 Left 2 !.tran 0.1
